21

Fe -0.0002387493 0.000328609 -0.0045100643
C 0.0047044771 1.2085794168 1.6758420939
C -1.1508810995 0.3689973448 1.6758420925
C -0.7175035377 -0.9915238595 1.6647564727
C 0.7091347678 -0.9760402707 1.6594423412
C 1.164716008 0.3759886971 1.664756475
C 1.1519917688 0.3791400753 -1.6833146647
C 0.7110427207 -0.9786663369 -1.6839882336
C -0.7165686649 -0.9784485555 -1.683314667
C -1.158348665 0.3797098934 -1.6815168219
C -0.0031761521 1.2189918571 -1.6815168205
H -2.179690562 0.7033027308 1.6543399223
H -1.3396046708 -1.8754442505 1.646044471
H 2.197614076 0.694495618 1.6460444754
H 2.1810060488 0.7126421422 -1.6534554358
H 1.3465941215 -1.8534277883 -1.6404981196
H -1.351730873 -1.8540414899 -1.6534554402
H -2.1871464493 0.7139961013 -1.6509491407
H -0.0031852367 2.300736813 -1.650949138
H 0.0046807619 2.2903414057 1.654339925
Cl 1.7346698868 -2.3875682574 1.7116554189